<routes><vType accel="0.8" decel="4.5" id="car" length="5" maxSpeed="40" sigma="0.5" /><vehicle color="1, 0, 0" depart="0" id="0" type="car"><route edges="north_in south_out" /></vehicle><vehicle color="1, 0, 0" depart="2.517423347769703" id="1" type="car"><route edges="west_in east_out" /></vehicle><vehicle color="1, 0, 0" depart="5.006814567588513" id="2" type="car"><route edges="north_in south_out" /></vehicle><vehicle color="1, 0, 0" depart="6.680602673652462" id="3" type="car"><route edges="north_in south_out" /></vehicle><vehicle color="1, 0, 0" depart="8.254527177523808" id="4" type="car"><route edges="west_in east_out" /></vehicle><vehicle color="1, 0, 0" depart="17.423559102299087" id="5" type="car"><route edges="west_in east_out" /></vehicle><vehicle color="1, 0, 0" depart="18.701977880569366" id="6" type="car"><route edges="west_in east_out" /></vehicle><vehicle color="1, 0, 0" depart="19.175362424036372" id="7" type="car"><route edges="west_in east_out" /></vehicle><vehicle color="1, 0, 0" depart="19.72547591467119" id="8" type="car"><route edges="south_in north_out" /></vehicle><vehicle color="1, 0, 0" depart="25.839801317404692" id="9" type="car"><route edges="south_in north_out" /></vehicle><vehicle color="1, 0, 0" depart="33.784054019026115" id="10" type="car"><route edges="west_in east_out" /></vehicle><vehicle color="1, 0, 0" depart="45.20156022126791" id="11" type="car"><route edges="north_in south_out" /></vehicle><vehicle color="1, 0, 0" depart="49.771512249757734" id="12" type="car"><route edges="west_in east_out" /></vehicle><vehicle color="1, 0, 0" depart="53.37137132132738" id="13" type="car"><route edges="north_in south_out" /></vehicle><vehicle color="1, 0, 0" depart="54.55973036109024" id="14" type="car"><route edges="north_in south_out" /></vehicle><vehicle color="1, 0, 0" depart="59.58276240834508" id="15" type="car"><route edges="north_in south_out" /></vehicle><vehicle color="1, 0, 0" depart="60.610344909112975" id="16" type="car"><route edges="east_in west_out" /></vehicle><vehicle color="1, 0, 0" depart="67.35498018887009" id="17" type="car"><route edges="east_in west_out" /></vehicle><vehicle color="1, 0, 0" depart="68.10944885463215" id="18" type="car"><route edges="north_in south_out" /></vehicle><vehicle color="1, 0, 0" depart="75.55396442870823" id="19" type="car"><route edges="west_in east_out" /></vehicle><vehicle color="1, 0, 0" depart="76.281027154559" id="20" type="car"><route edges="south_in north_out" /></vehicle><vehicle color="1, 0, 0" depart="78.19731617966693" id="21" type="car"><route edges="east_in west_out" /></vehicle><vehicle color="1, 0, 0" depart="83.56908295718418" id="22" type="car"><route edges="east_in west_out" /></vehicle><vehicle color="1, 0, 0" depart="109.56755123694506" id="23" type="car"><route edges="south_in north_out" /></vehicle><vehicle color="1, 0, 0" depart="115.1787598817149" id="24" type="car"><route edges="west_in east_out" /></vehicle><vehicle color="1, 0, 0" depart="119.76876278385929" id="25" type="car"><route edges="north_in south_out" /></vehicle><vehicle color="1, 0, 0" depart="121.96641829007723" id="26" type="car"><route edges="west_in east_out" /></vehicle><vehicle color="1, 0, 0" depart="125.0780811609748" id="27" type="car"><route edges="south_in north_out" /></vehicle><vehicle color="1, 0, 0" depart="128.5647887735328" id="28" type="car"><route edges="east_in west_out" /></vehicle><vehicle color="1, 0, 0" depart="133.1772215693567" id="29" type="car"><route edges="west_in east_out" /></vehicle><vehicle color="1, 0, 0" depart="134.3725212368645" id="30" type="car"><route edges="west_in east_out" /></vehicle><vehicle color="1, 0, 0" depart="134.5338592947542" id="31" type="car"><route edges="south_in north_out" /></vehicle><vehicle color="1, 0, 0" depart="134.62969286192782" id="32" type="car"><route edges="north_in south_out" /></vehicle><vehicle color="1, 0, 0" depart="138.01444610161414" id="33" type="car"><route edges="south_in north_out" /></vehicle><vehicle color="1, 0, 0" depart="140.2210014097634" id="34" type="car"><route edges="north_in south_out" /></vehicle><vehicle color="1, 0, 0" depart="141.70738313990228" id="35" type="car"><route edges="north_in south_out" /></vehicle><vehicle color="1, 0, 0" depart="147.40001420455627" id="36" type="car"><route edges="west_in east_out" /></vehicle><vehicle color="1, 0, 0" depart="148.77326288419573" id="37" type="car"><route edges="north_in south_out" /></vehicle><vehicle color="1, 0, 0" depart="150.29739552377512" id="38" type="car"><route edges="south_in north_out" /></vehicle><vehicle color="1, 0, 0" depart="153.3516205669616" id="39" type="car"><route edges="west_in east_out" /></vehicle><vehicle color="1, 0, 0" depart="157.64598923471542" id="40" type="car"><route edges="south_in north_out" /></vehicle><vehicle color="1, 0, 0" depart="159.2750952378041" id="41" type="car"><route edges="east_in west_out" /></vehicle><vehicle color="1, 0, 0" depart="167.8918269106384" id="42" type="car"><route edges="south_in north_out" /></vehicle><vehicle color="1, 0, 0" depart="168.57446964821924" id="43" type="car"><route edges="north_in south_out" /></vehicle><vehicle color="1, 0, 0" depart="173.76529508093577" id="44" type="car"><route edges="east_in west_out" /></vehicle><vehicle color="1, 0, 0" depart="182.32928500538455" id="45" type="car"><route edges="south_in north_out" /></vehicle><vehicle color="1, 0, 0" depart="186.17899426370397" id="46" type="car"><route edges="west_in east_out" /></vehicle><vehicle color="1, 0, 0" depart="192.0206845780218" id="47" type="car"><route edges="west_in east_out" /></vehicle><vehicle color="1, 0, 0" depart="197.4859099258363" id="48" type="car"><route edges="north_in south_out" /></vehicle><vehicle color="1, 0, 0" depart="204.3773447619081" id="49" type="car"><route edges="north_in south_out" /></vehicle><vehicle color="1, 0, 0" depart="204.76683582762092" id="50" type="car"><route edges="north_in south_out" /></vehicle><vehicle color="1, 0, 0" depart="205.3870122802298" id="51" type="car"><route edges="west_in east_out" /></vehicle><vehicle color="1, 0, 0" depart="205.71699036568222" id="52" type="car"><route edges="west_in east_out" /></vehicle><vehicle color="1, 0, 0" depart="207.17131141214324" id="53" type="car"><route edges="south_in north_out" /></vehicle><vehicle color="1, 0, 0" depart="208.10918159115081" id="54" type="car"><route edges="west_in east_out" /></vehicle><vehicle color="1, 0, 0" depart="218.547185484121" id="55" type="car"><route edges="east_in west_out" /></vehicle><vehicle color="1, 0, 0" depart="225.01260402175927" id="56" type="car"><route edges="south_in north_out" /></vehicle><vehicle color="1, 0, 0" depart="230.54335632575774" id="57" type="car"><route edges="south_in north_out" /></vehicle><vehicle color="1, 0, 0" depart="234.2893745382172" id="58" type="car"><route edges="east_in west_out" /></vehicle><vehicle color="1, 0, 0" depart="239.06273245390022" id="59" type="car"><route edges="north_in south_out" /></vehicle></routes>