<<<<<<< HEAD
<routes><vType accel="0.8" decel="4.5" id="car" length="5" maxSpeed="40" sigma="0.5" /><vehicle color="1, 0, 0" depart="0" id="0" type="car"><route edges="north_in south_out" /></vehicle><vehicle color="1, 0, 0" depart="2.8914505809775792" id="1" type="car"><route edges="east_in west_out" /></vehicle><vehicle color="1, 0, 0" depart="5.1834836707518495" id="2" type="car"><route edges="west_in east_out" /></vehicle><vehicle color="1, 0, 0" depart="6.2574960266067015" id="3" type="car"><route edges="north_in south_out" /></vehicle><vehicle color="1, 0, 0" depart="12.929789588962496" id="4" type="car"><route edges="north_in south_out" /></vehicle><vehicle color="1, 0, 0" depart="15.521288013681227" id="5" type="car"><route edges="west_in east_out" /></vehicle><vehicle color="1, 0, 0" depart="18.478989221374526" id="6" type="car"><route edges="east_in west_out" /></vehicle><vehicle color="1, 0, 0" depart="19.47233793657838" id="7" type="car"><route edges="south_in north_out" /></vehicle><vehicle color="1, 0, 0" depart="22.05187383261186" id="8" type="car"><route edges="north_in south_out" /></vehicle><vehicle color="1, 0, 0" depart="24.60570907914656" id="9" type="car"><route edges="east_in west_out" /></vehicle><vehicle color="1, 0, 0" depart="30.233511248460424" id="10" type="car"><route edges="west_in east_out" /></vehicle><vehicle color="1, 0, 0" depart="37.83901460246397" id="11" type="car"><route edges="south_in north_out" /></vehicle><vehicle color="1, 0, 0" depart="38.69902231074624" id="12" type="car"><route edges="north_in south_out" /></vehicle><vehicle color="1, 0, 0" depart="40.17911355368354" id="13" type="car"><route edges="east_in west_out" /></vehicle><vehicle color="1, 0, 0" depart="52.783292629002474" id="14" type="car"><route edges="south_in north_out" /></vehicle><vehicle color="1, 0, 0" depart="54.06704051873081" id="15" type="car"><route edges="north_in south_out" /></vehicle><vehicle color="1, 0, 0" depart="64.59147374351221" id="16" type="car"><route edges="west_in east_out" /></vehicle><vehicle color="1, 0, 0" depart="69.48904143104059" id="17" type="car"><route edges="north_in south_out" /></vehicle><vehicle color="1, 0, 0" depart="69.98280403950412" id="18" type="car"><route edges="south_in north_out" /></vehicle><vehicle color="1, 0, 0" depart="72.66533600916094" id="19" type="car"><route edges="north_in south_out" /></vehicle><vehicle color="1, 0, 0" depart="87.49796705440397" id="20" type="car"><route edges="north_in south_out" /></vehicle><vehicle color="1, 0, 0" depart="87.95026368213085" id="21" type="car"><route edges="north_in south_out" /></vehicle><vehicle color="1, 0, 0" depart="90.1870552583697" id="22" type="car"><route edges="north_in south_out" /></vehicle><vehicle color="1, 0, 0" depart="102.85984186569057" id="23" type="car"><route edges="east_in west_out" /></vehicle><vehicle color="1, 0, 0" depart="104.04379560332919" id="24" type="car"><route edges="east_in west_out" /></vehicle><vehicle color="1, 0, 0" depart="104.5363884990895" id="25" type="car"><route edges="west_in east_out" /></vehicle><vehicle color="1, 0, 0" depart="106.7173735496177" id="26" type="car"><route edges="south_in north_out" /></vehicle><vehicle color="1, 0, 0" depart="111.12680454794318" id="27" type="car"><route edges="east_in west_out" /></vehicle><vehicle color="1, 0, 0" depart="120.77483920854662" id="28" type="car"><route edges="east_in west_out" /></vehicle><vehicle color="1, 0, 0" depart="121.02333442581853" id="29" type="car"><route edges="east_in west_out" /></vehicle><vehicle color="1, 0, 0" depart="127.31328255141749" id="30" type="car"><route edges="north_in south_out" /></vehicle><vehicle color="1, 0, 0" depart="128.92578406523538" id="31" type="car"><route edges="east_in west_out" /></vehicle><vehicle color="1, 0, 0" depart="144.16569965471783" id="32" type="car"><route edges="east_in west_out" /></vehicle><vehicle color="1, 0, 0" depart="151.95651898423102" id="33" type="car"><route edges="east_in west_out" /></vehicle><vehicle color="1, 0, 0" depart="156.01398002830936" id="34" type="car"><route edges="north_in south_out" /></vehicle><vehicle color="1, 0, 0" depart="156.49585494411798" id="35" type="car"><route edges="north_in south_out" /></vehicle><vehicle color="1, 0, 0" depart="158.4534409786835" id="36" type="car"><route edges="south_in north_out" /></vehicle><vehicle color="1, 0, 0" depart="162.16275376183486" id="37" type="car"><route edges="west_in east_out" /></vehicle><vehicle color="1, 0, 0" depart="162.38926450111094" id="38" type="car"><route edges="south_in north_out" /></vehicle><vehicle color="1, 0, 0" depart="170.011016512639" id="39" type="car"><route edges="east_in west_out" /></vehicle><vehicle color="1, 0, 0" depart="177.24863085498188" id="40" type="car"><route edges="north_in south_out" /></vehicle><vehicle color="1, 0, 0" depart="179.58641207514347" id="41" type="car"><route edges="north_in south_out" /></vehicle><vehicle color="1, 0, 0" depart="182.36591452775752" id="42" type="car"><route edges="west_in east_out" /></vehicle><vehicle color="1, 0, 0" depart="183.24450794937175" id="43" type="car"><route edges="south_in north_out" /></vehicle><vehicle color="1, 0, 0" depart="184.9486533425475" id="44" type="car"><route edges="north_in south_out" /></vehicle><vehicle color="1, 0, 0" depart="188.16462754816502" id="45" type="car"><route edges="east_in west_out" /></vehicle><vehicle color="1, 0, 0" depart="192.77790200546985" id="46" type="car"><route edges="north_in south_out" /></vehicle><vehicle color="1, 0, 0" depart="193.17726509891654" id="47" type="car"><route edges="west_in east_out" /></vehicle><vehicle color="1, 0, 0" depart="205.38294907887342" id="48" type="car"><route edges="west_in east_out" /></vehicle><vehicle color="1, 0, 0" depart="208.81840241257035" id="49" type="car"><route edges="west_in east_out" /></vehicle><vehicle color="1, 0, 0" depart="226.75351322535997" id="50" type="car"><route edges="north_in south_out" /></vehicle><vehicle color="1, 0, 0" depart="232.97950141229074" id="51" type="car"><route edges="south_in north_out" /></vehicle></routes>
=======
<routes><vType accel="0.8" decel="4.5" id="car" length="5" maxSpeed="40" sigma="0" /><vehicle color="1, 0, 0" depart="0" id="0" type="car"><route edges="south_in north_out" /></vehicle><vehicle color="1, 0, 0" depart="7.738455433239124" id="1" type="car"><route edges="west_in east_out" /></vehicle><vehicle color="1, 0, 0" depart="10.680030734347238" id="2" type="car"><route edges="south_in north_out" /></vehicle><vehicle color="1, 0, 0" depart="11.027408265872369" id="3" type="car"><route edges="east_in west_out" /></vehicle><vehicle color="1, 0, 0" depart="11.624776732986149" id="4" type="car"><route edges="south_in north_out" /></vehicle><vehicle color="1, 0, 0" depart="15.263506886324155" id="5" type="car"><route edges="east_in west_out" /></vehicle><vehicle color="1, 0, 0" depart="17.576086624520073" id="6" type="car"><route edges="west_in east_out" /></vehicle><vehicle color="1, 0, 0" depart="17.877708320025473" id="7" type="car"><route edges="south_in north_out" /></vehicle><vehicle color="1, 0, 0" depart="25.034542569510347" id="8" type="car"><route edges="north_in south_out" /></vehicle><vehicle color="1, 0, 0" depart="44.99352417570789" id="9" type="car"><route edges="south_in north_out" /></vehicle><vehicle color="1, 0, 0" depart="63.3573610140215" id="10" type="car"><route edges="north_in south_out" /></vehicle><vehicle color="1, 0, 0" depart="68.15627470414275" id="11" type="car"><route edges="south_in north_out" /></vehicle><vehicle color="1, 0, 0" depart="69.5651274011471" id="12" type="car"><route edges="south_in north_out" /></vehicle><vehicle color="1, 0, 0" depart="79.30915778827179" id="13" type="car"><route edges="north_in south_out" /></vehicle><vehicle color="1, 0, 0" depart="80.46610706945725" id="14" type="car"><route edges="north_in south_out" /></vehicle><vehicle color="1, 0, 0" depart="81.0846972036085" id="15" type="car"><route edges="east_in west_out" /></vehicle><vehicle color="1, 0, 0" depart="88.28935501399584" id="16" type="car"><route edges="east_in west_out" /></vehicle><vehicle color="1, 0, 0" depart="88.47287344540872" id="17" type="car"><route edges="south_in north_out" /></vehicle><vehicle color="1, 0, 0" depart="88.48384827882889" id="18" type="car"><route edges="east_in west_out" /></vehicle><vehicle color="1, 0, 0" depart="88.98423921812275" id="19" type="car"><route edges="east_in west_out" /></vehicle><vehicle color="1, 0, 0" depart="92.6507904571283" id="20" type="car"><route edges="west_in east_out" /></vehicle><vehicle color="1, 0, 0" depart="96.42094707096983" id="21" type="car"><route edges="west_in east_out" /></vehicle><vehicle color="1, 0, 0" depart="110.17518357241701" id="22" type="car"><route edges="west_in east_out" /></vehicle><vehicle color="1, 0, 0" depart="112.12148349117977" id="23" type="car"><route edges="south_in north_out" /></vehicle><vehicle color="1, 0, 0" depart="115.05291336551427" id="24" type="car"><route edges="east_in west_out" /></vehicle><vehicle color="1, 0, 0" depart="115.82053412045467" id="25" type="car"><route edges="north_in south_out" /></vehicle><vehicle color="1, 0, 0" depart="118.89029891603109" id="26" type="car"><route edges="west_in east_out" /></vehicle><vehicle color="1, 0, 0" depart="127.06461248093952" id="27" type="car"><route edges="north_in south_out" /></vehicle><vehicle color="1, 0, 0" depart="133.41957932435673" id="28" type="car"><route edges="west_in east_out" /></vehicle><vehicle color="1, 0, 0" depart="140.68190973363167" id="29" type="car"><route edges="north_in south_out" /></vehicle><vehicle color="1, 0, 0" depart="142.8901136619462" id="30" type="car"><route edges="east_in west_out" /></vehicle><vehicle color="1, 0, 0" depart="146.01713625191059" id="31" type="car"><route edges="south_in north_out" /></vehicle><vehicle color="1, 0, 0" depart="146.0750857304709" id="32" type="car"><route edges="east_in west_out" /></vehicle><vehicle color="1, 0, 0" depart="153.29719273334084" id="33" type="car"><route edges="north_in south_out" /></vehicle><vehicle color="1, 0, 0" depart="154.58861930214837" id="34" type="car"><route edges="east_in west_out" /></vehicle><vehicle color="1, 0, 0" depart="161.59542685420115" id="35" type="car"><route edges="east_in west_out" /></vehicle><vehicle color="1, 0, 0" depart="168.29074832451383" id="36" type="car"><route edges="west_in east_out" /></vehicle><vehicle color="1, 0, 0" depart="171.43927152289368" id="37" type="car"><route edges="west_in east_out" /></vehicle><vehicle color="1, 0, 0" depart="176.26975630172524" id="38" type="car"><route edges="south_in north_out" /></vehicle><vehicle color="1, 0, 0" depart="176.9272027412819" id="39" type="car"><route edges="east_in west_out" /></vehicle><vehicle color="1, 0, 0" depart="180.40447047648837" id="40" type="car"><route edges="north_in south_out" /></vehicle><vehicle color="1, 0, 0" depart="183.11296101959002" id="41" type="car"><route edges="south_in north_out" /></vehicle><vehicle color="1, 0, 0" depart="199.49898450387522" id="42" type="car"><route edges="west_in east_out" /></vehicle><vehicle color="1, 0, 0" depart="199.65632163923462" id="43" type="car"><route edges="west_in east_out" /></vehicle><vehicle color="1, 0, 0" depart="203.15583562679663" id="44" type="car"><route edges="north_in south_out" /></vehicle><vehicle color="1, 0, 0" depart="209.88861044796596" id="45" type="car"><route edges="east_in west_out" /></vehicle><vehicle color="1, 0, 0" depart="210.48917714406141" id="46" type="car"><route edges="west_in east_out" /></vehicle><vehicle color="1, 0, 0" depart="215.96594356726038" id="47" type="car"><route edges="west_in east_out" /></vehicle><vehicle color="1, 0, 0" depart="218.93045417415533" id="48" type="car"><route edges="east_in west_out" /></vehicle><vehicle color="1, 0, 0" depart="232.2437211942913" id="49" type="car"><route edges="north_in south_out" /></vehicle><vehicle color="1, 0, 0" depart="234.34846008223477" id="50" type="car"><route edges="north_in south_out" /></vehicle><vehicle color="1, 0, 0" depart="239.8509792650315" id="51" type="car"><route edges="north_in south_out" /></vehicle></routes>
>>>>>>> fb91634ce0e50c76334f1bfea6f08f684b54b5c6
