<routes><vType accel="0.8" decel="4.5" id="car" length="5" maxSpeed="40" sigma="0.5" /><vehicle color="1, 0, 0" depart="0" id="0" type="car"><route edges="west_in east_out" /></vehicle><vehicle color="1, 0, 0" depart="0.10673303572852803" id="1" type="car"><route edges="south_in north_out" /></vehicle><vehicle color="1, 0, 0" depart="7.069177516464784" id="2" type="car"><route edges="west_in east_out" /></vehicle><vehicle color="1, 0, 0" depart="12.952398228185897" id="3" type="car"><route edges="west_in east_out" /></vehicle><vehicle color="1, 0, 0" depart="18.355194820191763" id="4" type="car"><route edges="west_in east_out" /></vehicle><vehicle color="1, 0, 0" depart="24.70471805637404" id="5" type="car"><route edges="west_in east_out" /></vehicle><vehicle color="1, 0, 0" depart="28.501201813985446" id="6" type="car"><route edges="east_in west_out" /></vehicle><vehicle color="1, 0, 0" depart="30.152157316007354" id="7" type="car"><route edges="south_in north_out" /></vehicle><vehicle color="1, 0, 0" depart="32.227327381613904" id="8" type="car"><route edges="north_in south_out" /></vehicle><vehicle color="1, 0, 0" depart="36.919537746665355" id="9" type="car"><route edges="west_in east_out" /></vehicle><vehicle color="1, 0, 0" depart="37.321816681773406" id="10" type="car"><route edges="west_in east_out" /></vehicle><vehicle color="1, 0, 0" depart="37.32788457561583" id="11" type="car"><route edges="west_in east_out" /></vehicle><vehicle color="1, 0, 0" depart="43.35399140578455" id="12" type="car"><route edges="south_in north_out" /></vehicle><vehicle color="1, 0, 0" depart="48.14115496784221" id="13" type="car"><route edges="south_in north_out" /></vehicle><vehicle color="1, 0, 0" depart="48.33421728854333" id="14" type="car"><route edges="east_in west_out" /></vehicle><vehicle color="1, 0, 0" depart="51.80768236345368" id="15" type="car"><route edges="north_in south_out" /></vehicle><vehicle color="1, 0, 0" depart="57.050909335883304" id="16" type="car"><route edges="east_in west_out" /></vehicle><vehicle color="1, 0, 0" depart="59.5439036943561" id="17" type="car"><route edges="north_in south_out" /></vehicle><vehicle color="1, 0, 0" depart="59.82212314036178" id="18" type="car"><route edges="north_in south_out" /></vehicle><vehicle color="1, 0, 0" depart="70.24338066992054" id="19" type="car"><route edges="north_in south_out" /></vehicle><vehicle color="1, 0, 0" depart="71.97110956882173" id="20" type="car"><route edges="south_in north_out" /></vehicle><vehicle color="1, 0, 0" depart="72.50558486996717" id="21" type="car"><route edges="north_in south_out" /></vehicle><vehicle color="1, 0, 0" depart="76.6632087618639" id="22" type="car"><route edges="north_in south_out" /></vehicle><vehicle color="1, 0, 0" depart="79.50382949051436" id="23" type="car"><route edges="east_in west_out" /></vehicle><vehicle color="1, 0, 0" depart="79.5210359963452" id="24" type="car"><route edges="north_in south_out" /></vehicle><vehicle color="1, 0, 0" depart="87.96906299748338" id="25" type="car"><route edges="south_in north_out" /></vehicle><vehicle color="1, 0, 0" depart="88.10338642079" id="26" type="car"><route edges="south_in north_out" /></vehicle><vehicle color="1, 0, 0" depart="91.22580661942384" id="27" type="car"><route edges="south_in north_out" /></vehicle><vehicle color="1, 0, 0" depart="92.43277734393585" id="28" type="car"><route edges="east_in west_out" /></vehicle><vehicle color="1, 0, 0" depart="94.4755095624797" id="29" type="car"><route edges="east_in west_out" /></vehicle><vehicle color="1, 0, 0" depart="96.63905906513962" id="30" type="car"><route edges="north_in south_out" /></vehicle><vehicle color="1, 0, 0" depart="98.18415294188088" id="31" type="car"><route edges="south_in north_out" /></vehicle><vehicle color="1, 0, 0" depart="98.46279273974217" id="32" type="car"><route edges="south_in north_out" /></vehicle><vehicle color="1, 0, 0" depart="99.69849515794934" id="33" type="car"><route edges="east_in west_out" /></vehicle><vehicle color="1, 0, 0" depart="101.54835182782467" id="34" type="car"><route edges="east_in west_out" /></vehicle><vehicle color="1, 0, 0" depart="102.99957935479861" id="35" type="car"><route edges="south_in north_out" /></vehicle><vehicle color="1, 0, 0" depart="103.45904949553696" id="36" type="car"><route edges="south_in north_out" /></vehicle><vehicle color="1, 0, 0" depart="106.77897378361662" id="37" type="car"><route edges="south_in north_out" /></vehicle><vehicle color="1, 0, 0" depart="108.86664430036086" id="38" type="car"><route edges="south_in north_out" /></vehicle><vehicle color="1, 0, 0" depart="109.65313292182807" id="39" type="car"><route edges="north_in south_out" /></vehicle><vehicle color="1, 0, 0" depart="110.19701887424013" id="40" type="car"><route edges="south_in north_out" /></vehicle><vehicle color="1, 0, 0" depart="110.63174225324785" id="41" type="car"><route edges="south_in north_out" /></vehicle><vehicle color="1, 0, 0" depart="112.96174595827766" id="42" type="car"><route edges="west_in east_out" /></vehicle><vehicle color="1, 0, 0" depart="116.79035956126675" id="43" type="car"><route edges="south_in north_out" /></vehicle><vehicle color="1, 0, 0" depart="117.84420923880788" id="44" type="car"><route edges="east_in west_out" /></vehicle><vehicle color="1, 0, 0" depart="119.65377039713489" id="45" type="car"><route edges="west_in east_out" /></vehicle><vehicle color="1, 0, 0" depart="121.49896073333434" id="46" type="car"><route edges="east_in west_out" /></vehicle><vehicle color="1, 0, 0" depart="121.90195919313828" id="47" type="car"><route edges="east_in west_out" /></vehicle><vehicle color="1, 0, 0" depart="122.63613923853057" id="48" type="car"><route edges="east_in west_out" /></vehicle><vehicle color="1, 0, 0" depart="122.70298186000817" id="49" type="car"><route edges="south_in north_out" /></vehicle><vehicle color="1, 0, 0" depart="128.46167018923086" id="50" type="car"><route edges="north_in south_out" /></vehicle><vehicle color="1, 0, 0" depart="134.53324956127764" id="51" type="car"><route edges="west_in east_out" /></vehicle><vehicle color="1, 0, 0" depart="135.18422157440645" id="52" type="car"><route edges="south_in north_out" /></vehicle><vehicle color="1, 0, 0" depart="136.56398673830145" id="53" type="car"><route edges="west_in east_out" /></vehicle><vehicle color="1, 0, 0" depart="137.47512308741574" id="54" type="car"><route edges="south_in north_out" /></vehicle><vehicle color="1, 0, 0" depart="142.83693924295466" id="55" type="car"><route edges="south_in north_out" /></vehicle><vehicle color="1, 0, 0" depart="146.09165750200725" id="56" type="car"><route edges="north_in south_out" /></vehicle><vehicle color="1, 0, 0" depart="146.6422038404698" id="57" type="car"><route edges="south_in north_out" /></vehicle><vehicle color="1, 0, 0" depart="151.38569688861685" id="58" type="car"><route edges="west_in east_out" /></vehicle><vehicle color="1, 0, 0" depart="152.54489432576463" id="59" type="car"><route edges="north_in south_out" /></vehicle><vehicle color="1, 0, 0" depart="155.24422083881237" id="60" type="car"><route edges="south_in north_out" /></vehicle><vehicle color="1, 0, 0" depart="155.34317455432378" id="61" type="car"><route edges="south_in north_out" /></vehicle><vehicle color="1, 0, 0" depart="156.29886444902144" id="62" type="car"><route edges="west_in east_out" /></vehicle><vehicle color="1, 0, 0" depart="160.4768684834786" id="63" type="car"><route edges="south_in north_out" /></vehicle><vehicle color="1, 0, 0" depart="162.7173733876442" id="64" type="car"><route edges="north_in south_out" /></vehicle><vehicle color="1, 0, 0" depart="174.04155008743547" id="65" type="car"><route edges="east_in west_out" /></vehicle><vehicle color="1, 0, 0" depart="181.4047032862512" id="66" type="car"><route edges="north_in south_out" /></vehicle><vehicle color="1, 0, 0" depart="183.19851942806278" id="67" type="car"><route edges="west_in east_out" /></vehicle><vehicle color="1, 0, 0" depart="185.69060430200713" id="68" type="car"><route edges="south_in north_out" /></vehicle><vehicle color="1, 0, 0" depart="187.4681125948013" id="69" type="car"><route edges="north_in south_out" /></vehicle><vehicle color="1, 0, 0" depart="197.65304216562797" id="70" type="car"><route edges="north_in south_out" /></vehicle><vehicle color="1, 0, 0" depart="198.80591551206484" id="71" type="car"><route edges="south_in north_out" /></vehicle><vehicle color="1, 0, 0" depart="201.9123467613353" id="72" type="car"><route edges="west_in east_out" /></vehicle><vehicle color="1, 0, 0" depart="202.62368575188853" id="73" type="car"><route edges="north_in south_out" /></vehicle><vehicle color="1, 0, 0" depart="207.49348981320819" id="74" type="car"><route edges="east_in west_out" /></vehicle><vehicle color="1, 0, 0" depart="207.76416084285523" id="75" type="car"><route edges="east_in west_out" /></vehicle><vehicle color="1, 0, 0" depart="212.11480990915516" id="76" type="car"><route edges="east_in west_out" /></vehicle><vehicle color="1, 0, 0" depart="215.3234767136994" id="77" type="car"><route edges="east_in west_out" /></vehicle><vehicle color="1, 0, 0" depart="221.37608805672963" id="78" type="car"><route edges="west_in east_out" /></vehicle><vehicle color="1, 0, 0" depart="234.1268173968316" id="79" type="car"><route edges="west_in east_out" /></vehicle></routes>