<routes><vType accel="0.8" decel="4.5" id="car" length="5" maxSpeed="40" sigma="0.5" /><vehicle color="1, 0, 0" depart="0" id="0" type="car"><route edges="east_in west_out" /></vehicle><vehicle color="1, 0, 0" depart="0.9795690148859162" id="1" type="car"><route edges="west_in east_out" /></vehicle><vehicle color="1, 0, 0" depart="3.955456817740415" id="2" type="car"><route edges="south_in north_out" /></vehicle><vehicle color="1, 0, 0" depart="7.281403078231067" id="3" type="car"><route edges="north_in south_out" /></vehicle><vehicle color="1, 0, 0" depart="13.306200291505089" id="4" type="car"><route edges="west_in east_out" /></vehicle><vehicle color="1, 0, 0" depart="17.867540358828485" id="5" type="car"><route edges="north_in south_out" /></vehicle><vehicle color="1, 0, 0" depart="18.963736874209765" id="6" type="car"><route edges="south_in north_out" /></vehicle><vehicle color="1, 0, 0" depart="19.800217528610684" id="7" type="car"><route edges="south_in north_out" /></vehicle><vehicle color="1, 0, 0" depart="25.672945696366977" id="8" type="car"><route edges="west_in east_out" /></vehicle><vehicle color="1, 0, 0" depart="25.7238677803065" id="9" type="car"><route edges="east_in west_out" /></vehicle><vehicle color="1, 0, 0" depart="28.837597289034058" id="10" type="car"><route edges="east_in west_out" /></vehicle><vehicle color="1, 0, 0" depart="29.17553058593367" id="11" type="car"><route edges="south_in north_out" /></vehicle><vehicle color="1, 0, 0" depart="32.971045259477556" id="12" type="car"><route edges="south_in north_out" /></vehicle><vehicle color="1, 0, 0" depart="33.46789515317099" id="13" type="car"><route edges="east_in west_out" /></vehicle><vehicle color="1, 0, 0" depart="36.542220480004524" id="14" type="car"><route edges="east_in west_out" /></vehicle><vehicle color="1, 0, 0" depart="40.342735573630506" id="15" type="car"><route edges="south_in north_out" /></vehicle><vehicle color="1, 0, 0" depart="43.98931283475123" id="16" type="car"><route edges="west_in east_out" /></vehicle><vehicle color="1, 0, 0" depart="53.0578325852788" id="17" type="car"><route edges="north_in south_out" /></vehicle><vehicle color="1, 0, 0" depart="55.77367482479958" id="18" type="car"><route edges="west_in east_out" /></vehicle><vehicle color="1, 0, 0" depart="61.61461722410137" id="19" type="car"><route edges="east_in west_out" /></vehicle><vehicle color="1, 0, 0" depart="78.66560989881287" id="20" type="car"><route edges="west_in east_out" /></vehicle><vehicle color="1, 0, 0" depart="82.97261806540473" id="21" type="car"><route edges="north_in south_out" /></vehicle><vehicle color="1, 0, 0" depart="92.89740894968294" id="22" type="car"><route edges="north_in south_out" /></vehicle><vehicle color="1, 0, 0" depart="96.40848417256974" id="23" type="car"><route edges="north_in south_out" /></vehicle><vehicle color="1, 0, 0" depart="97.55448525280296" id="24" type="car"><route edges="east_in west_out" /></vehicle><vehicle color="1, 0, 0" depart="99.26022700748842" id="25" type="car"><route edges="west_in east_out" /></vehicle><vehicle color="1, 0, 0" depart="99.92158504738605" id="26" type="car"><route edges="west_in east_out" /></vehicle><vehicle color="1, 0, 0" depart="102.08920934658846" id="27" type="car"><route edges="west_in east_out" /></vehicle><vehicle color="1, 0, 0" depart="109.15425582620018" id="28" type="car"><route edges="south_in north_out" /></vehicle><vehicle color="1, 0, 0" depart="111.30830123554325" id="29" type="car"><route edges="east_in west_out" /></vehicle><vehicle color="1, 0, 0" depart="114.21716250509719" id="30" type="car"><route edges="west_in east_out" /></vehicle><vehicle color="1, 0, 0" depart="115.97262351817402" id="31" type="car"><route edges="east_in west_out" /></vehicle><vehicle color="1, 0, 0" depart="122.448075312484" id="32" type="car"><route edges="east_in west_out" /></vehicle><vehicle color="1, 0, 0" depart="134.412392306783" id="33" type="car"><route edges="west_in east_out" /></vehicle><vehicle color="1, 0, 0" depart="135.236277552365" id="34" type="car"><route edges="west_in east_out" /></vehicle><vehicle color="1, 0, 0" depart="138.56493147527402" id="35" type="car"><route edges="north_in south_out" /></vehicle><vehicle color="1, 0, 0" depart="138.73624911836956" id="36" type="car"><route edges="south_in north_out" /></vehicle><vehicle color="1, 0, 0" depart="144.45985013909973" id="37" type="car"><route edges="north_in south_out" /></vehicle><vehicle color="1, 0, 0" depart="147.12265589223136" id="38" type="car"><route edges="south_in north_out" /></vehicle><vehicle color="1, 0, 0" depart="148.70085560534315" id="39" type="car"><route edges="south_in north_out" /></vehicle><vehicle color="1, 0, 0" depart="150.21481596240818" id="40" type="car"><route edges="north_in south_out" /></vehicle><vehicle color="1, 0, 0" depart="152.7130851833495" id="41" type="car"><route edges="north_in south_out" /></vehicle><vehicle color="1, 0, 0" depart="156.61009936129824" id="42" type="car"><route edges="west_in east_out" /></vehicle><vehicle color="1, 0, 0" depart="159.7052330153579" id="43" type="car"><route edges="south_in north_out" /></vehicle><vehicle color="1, 0, 0" depart="170.78370023464822" id="44" type="car"><route edges="west_in east_out" /></vehicle><vehicle color="1, 0, 0" depart="174.24711243290986" id="45" type="car"><route edges="south_in north_out" /></vehicle><vehicle color="1, 0, 0" depart="175.0224306987371" id="46" type="car"><route edges="east_in west_out" /></vehicle><vehicle color="1, 0, 0" depart="176.4486609478285" id="47" type="car"><route edges="west_in east_out" /></vehicle><vehicle color="1, 0, 0" depart="183.27930125946682" id="48" type="car"><route edges="south_in north_out" /></vehicle><vehicle color="1, 0, 0" depart="193.6098074107792" id="49" type="car"><route edges="south_in north_out" /></vehicle><vehicle color="1, 0, 0" depart="201.5061837754099" id="50" type="car"><route edges="east_in west_out" /></vehicle><vehicle color="1, 0, 0" depart="205.6124583465998" id="51" type="car"><route edges="north_in south_out" /></vehicle><vehicle color="1, 0, 0" depart="211.98061689016478" id="52" type="car"><route edges="west_in east_out" /></vehicle><vehicle color="1, 0, 0" depart="217.42802807074162" id="53" type="car"><route edges="east_in west_out" /></vehicle><vehicle color="1, 0, 0" depart="218.0038112618841" id="54" type="car"><route edges="north_in south_out" /></vehicle><vehicle color="1, 0, 0" depart="220.49747685466178" id="55" type="car"><route edges="east_in west_out" /></vehicle><vehicle color="1, 0, 0" depart="221.15823579370615" id="56" type="car"><route edges="north_in south_out" /></vehicle><vehicle color="1, 0, 0" depart="222.37648195434738" id="57" type="car"><route edges="west_in east_out" /></vehicle><vehicle color="1, 0, 0" depart="222.82745010835188" id="58" type="car"><route edges="south_in north_out" /></vehicle><vehicle color="1, 0, 0" depart="228.33116024349306" id="59" type="car"><route edges="south_in north_out" /></vehicle><vehicle color="1, 0, 0" depart="229.0540072457647" id="60" type="car"><route edges="west_in east_out" /></vehicle><vehicle color="1, 0, 0" depart="232.31871599892983" id="61" type="car"><route edges="east_in west_out" /></vehicle><vehicle color="1, 0, 0" depart="235.1307000162668" id="62" type="car"><route edges="west_in east_out" /></vehicle></routes>