<routes><vType accel="0.8" decel="4.5" id="car" length="5" maxSpeed="40" sigma="0.5" /><vehicle color="1, 0, 0" depart="0" id="0" type="car"><route edges="north_in south_out" /></vehicle><vehicle color="1, 0, 0" depart="2.8914505809775792" id="1" type="car"><route edges="east_in west_out" /></vehicle><vehicle color="1, 0, 0" depart="5.1834836707518495" id="2" type="car"><route edges="west_in east_out" /></vehicle><vehicle color="1, 0, 0" depart="6.2574960266067015" id="3" type="car"><route edges="north_in south_out" /></vehicle><vehicle color="1, 0, 0" depart="12.929789588962496" id="4" type="car"><route edges="north_in south_out" /></vehicle><vehicle color="1, 0, 0" depart="15.521288013681227" id="5" type="car"><route edges="west_in east_out" /></vehicle><vehicle color="1, 0, 0" depart="18.478989221374526" id="6" type="car"><route edges="east_in west_out" /></vehicle><vehicle color="1, 0, 0" depart="19.47233793657838" id="7" type="car"><route edges="south_in north_out" /></vehicle><vehicle color="1, 0, 0" depart="22.05187383261186" id="8" type="car"><route edges="north_in south_out" /></vehicle><vehicle color="1, 0, 0" depart="24.60570907914656" id="9" type="car"><route edges="east_in west_out" /></vehicle><vehicle color="1, 0, 0" depart="30.233511248460424" id="10" type="car"><route edges="west_in east_out" /></vehicle><vehicle color="1, 0, 0" depart="37.83901460246397" id="11" type="car"><route edges="south_in north_out" /></vehicle><vehicle color="1, 0, 0" depart="38.69902231074624" id="12" type="car"><route edges="north_in south_out" /></vehicle><vehicle color="1, 0, 0" depart="40.17911355368354" id="13" type="car"><route edges="east_in west_out" /></vehicle><vehicle color="1, 0, 0" depart="52.783292629002474" id="14" type="car"><route edges="south_in north_out" /></vehicle><vehicle color="1, 0, 0" depart="54.06704051873081" id="15" type="car"><route edges="north_in south_out" /></vehicle><vehicle color="1, 0, 0" depart="64.59147374351221" id="16" type="car"><route edges="west_in east_out" /></vehicle><vehicle color="1, 0, 0" depart="69.48904143104059" id="17" type="car"><route edges="north_in south_out" /></vehicle><vehicle color="1, 0, 0" depart="69.98280403950412" id="18" type="car"><route edges="south_in north_out" /></vehicle><vehicle color="1, 0, 0" depart="72.66533600916094" id="19" type="car"><route edges="north_in south_out" /></vehicle><vehicle color="1, 0, 0" depart="87.49796705440397" id="20" type="car"><route edges="north_in south_out" /></vehicle><vehicle color="1, 0, 0" depart="87.95026368213085" id="21" type="car"><route edges="north_in south_out" /></vehicle><vehicle color="1, 0, 0" depart="90.1870552583697" id="22" type="car"><route edges="north_in south_out" /></vehicle><vehicle color="1, 0, 0" depart="102.85984186569057" id="23" type="car"><route edges="east_in west_out" /></vehicle><vehicle color="1, 0, 0" depart="104.04379560332919" id="24" type="car"><route edges="east_in west_out" /></vehicle><vehicle color="1, 0, 0" depart="104.5363884990895" id="25" type="car"><route edges="west_in east_out" /></vehicle><vehicle color="1, 0, 0" depart="106.7173735496177" id="26" type="car"><route edges="south_in north_out" /></vehicle><vehicle color="1, 0, 0" depart="111.12680454794318" id="27" type="car"><route edges="east_in west_out" /></vehicle><vehicle color="1, 0, 0" depart="120.77483920854662" id="28" type="car"><route edges="east_in west_out" /></vehicle><vehicle color="1, 0, 0" depart="121.02333442581853" id="29" type="car"><route edges="east_in west_out" /></vehicle><vehicle color="1, 0, 0" depart="127.31328255141749" id="30" type="car"><route edges="north_in south_out" /></vehicle><vehicle color="1, 0, 0" depart="128.92578406523538" id="31" type="car"><route edges="east_in west_out" /></vehicle><vehicle color="1, 0, 0" depart="144.16569965471783" id="32" type="car"><route edges="east_in west_out" /></vehicle><vehicle color="1, 0, 0" depart="151.95651898423102" id="33" type="car"><route edges="east_in west_out" /></vehicle><vehicle color="1, 0, 0" depart="156.01398002830936" id="34" type="car"><route edges="north_in south_out" /></vehicle><vehicle color="1, 0, 0" depart="156.49585494411798" id="35" type="car"><route edges="north_in south_out" /></vehicle><vehicle color="1, 0, 0" depart="158.4534409786835" id="36" type="car"><route edges="south_in north_out" /></vehicle><vehicle color="1, 0, 0" depart="162.16275376183486" id="37" type="car"><route edges="west_in east_out" /></vehicle><vehicle color="1, 0, 0" depart="162.38926450111094" id="38" type="car"><route edges="south_in north_out" /></vehicle><vehicle color="1, 0, 0" depart="170.011016512639" id="39" type="car"><route edges="east_in west_out" /></vehicle><vehicle color="1, 0, 0" depart="177.24863085498188" id="40" type="car"><route edges="north_in south_out" /></vehicle><vehicle color="1, 0, 0" depart="179.58641207514347" id="41" type="car"><route edges="north_in south_out" /></vehicle><vehicle color="1, 0, 0" depart="182.36591452775752" id="42" type="car"><route edges="west_in east_out" /></vehicle><vehicle color="1, 0, 0" depart="183.24450794937175" id="43" type="car"><route edges="south_in north_out" /></vehicle><vehicle color="1, 0, 0" depart="184.9486533425475" id="44" type="car"><route edges="north_in south_out" /></vehicle><vehicle color="1, 0, 0" depart="188.16462754816502" id="45" type="car"><route edges="east_in west_out" /></vehicle><vehicle color="1, 0, 0" depart="192.77790200546985" id="46" type="car"><route edges="north_in south_out" /></vehicle><vehicle color="1, 0, 0" depart="193.17726509891654" id="47" type="car"><route edges="west_in east_out" /></vehicle><vehicle color="1, 0, 0" depart="205.38294907887342" id="48" type="car"><route edges="west_in east_out" /></vehicle><vehicle color="1, 0, 0" depart="208.81840241257035" id="49" type="car"><route edges="west_in east_out" /></vehicle><vehicle color="1, 0, 0" depart="226.75351322535997" id="50" type="car"><route edges="north_in south_out" /></vehicle><vehicle color="1, 0, 0" depart="232.97950141229074" id="51" type="car"><route edges="south_in north_out" /></vehicle></routes>
