<routes><vType accel="0.8" decel="4.5" id="car" length="5" maxSpeed="40" sigma="0.5" /><vehicle color="1, 0, 0" depart="0" id="0" type="car"><route edges="west_in east_out" /></vehicle><vehicle color="1, 0, 0" depart="3.761621683310966" id="1" type="car"><route edges="east_in west_out" /></vehicle><vehicle color="1, 0, 0" depart="4.866853750677416" id="2" type="car"><route edges="north_in south_out" /></vehicle><vehicle color="1, 0, 0" depart="8.062864734800693" id="3" type="car"><route edges="north_in south_out" /></vehicle><vehicle color="1, 0, 0" depart="12.709323830076263" id="4" type="car"><route edges="south_in north_out" /></vehicle><vehicle color="1, 0, 0" depart="15.802433046601777" id="5" type="car"><route edges="west_in east_out" /></vehicle><vehicle color="1, 0, 0" depart="23.18484046090997" id="6" type="car"><route edges="north_in south_out" /></vehicle><vehicle color="1, 0, 0" depart="24.585744202340408" id="7" type="car"><route edges="east_in west_out" /></vehicle><vehicle color="1, 0, 0" depart="24.82197026661789" id="8" type="car"><route edges="east_in west_out" /></vehicle><vehicle color="1, 0, 0" depart="27.082860179937867" id="9" type="car"><route edges="west_in east_out" /></vehicle><vehicle color="1, 0, 0" depart="29.819796034266332" id="10" type="car"><route edges="east_in west_out" /></vehicle><vehicle color="1, 0, 0" depart="44.36649227417357" id="11" type="car"><route edges="east_in west_out" /></vehicle><vehicle color="1, 0, 0" depart="54.46814566530763" id="12" type="car"><route edges="south_in north_out" /></vehicle><vehicle color="1, 0, 0" depart="60.86011829546237" id="13" type="car"><route edges="south_in north_out" /></vehicle><vehicle color="1, 0, 0" depart="61.66344882704954" id="14" type="car"><route edges="north_in south_out" /></vehicle><vehicle color="1, 0, 0" depart="72.12921658251204" id="15" type="car"><route edges="north_in south_out" /></vehicle><vehicle color="1, 0, 0" depart="72.5612598418916" id="16" type="car"><route edges="west_in east_out" /></vehicle><vehicle color="1, 0, 0" depart="74.21716895992908" id="17" type="car"><route edges="east_in west_out" /></vehicle><vehicle color="1, 0, 0" depart="74.85936904077556" id="18" type="car"><route edges="south_in north_out" /></vehicle><vehicle color="1, 0, 0" depart="83.92744293866983" id="19" type="car"><route edges="east_in west_out" /></vehicle><vehicle color="1, 0, 0" depart="92.46071252042351" id="20" type="car"><route edges="south_in north_out" /></vehicle><vehicle color="1, 0, 0" depart="93.10306739532732" id="21" type="car"><route edges="west_in east_out" /></vehicle><vehicle color="1, 0, 0" depart="104.02338456126114" id="22" type="car"><route edges="west_in east_out" /></vehicle><vehicle color="1, 0, 0" depart="105.02536803702438" id="23" type="car"><route edges="west_in east_out" /></vehicle><vehicle color="1, 0, 0" depart="105.57138310591277" id="24" type="car"><route edges="north_in south_out" /></vehicle><vehicle color="1, 0, 0" depart="107.64599829706582" id="25" type="car"><route edges="east_in west_out" /></vehicle><vehicle color="1, 0, 0" depart="112.88746181551102" id="26" type="car"><route edges="west_in east_out" /></vehicle><vehicle color="1, 0, 0" depart="120.84535546960883" id="27" type="car"><route edges="east_in west_out" /></vehicle><vehicle color="1, 0, 0" depart="122.48822054832286" id="28" type="car"><route edges="west_in east_out" /></vehicle><vehicle color="1, 0, 0" depart="124.0686660843507" id="29" type="car"><route edges="east_in west_out" /></vehicle><vehicle color="1, 0, 0" depart="127.6100058870268" id="30" type="car"><route edges="north_in south_out" /></vehicle><vehicle color="1, 0, 0" depart="130.7547549749727" id="31" type="car"><route edges="east_in west_out" /></vehicle><vehicle color="1, 0, 0" depart="138.05691011854526" id="32" type="car"><route edges="south_in north_out" /></vehicle><vehicle color="1, 0, 0" depart="143.22940922823204" id="33" type="car"><route edges="south_in north_out" /></vehicle><vehicle color="1, 0, 0" depart="144.08603600526638" id="34" type="car"><route edges="east_in west_out" /></vehicle><vehicle color="1, 0, 0" depart="146.86688359549646" id="35" type="car"><route edges="west_in east_out" /></vehicle><vehicle color="1, 0, 0" depart="155.54599115051164" id="36" type="car"><route edges="west_in east_out" /></vehicle><vehicle color="1, 0, 0" depart="158.5398021073158" id="37" type="car"><route edges="north_in south_out" /></vehicle><vehicle color="1, 0, 0" depart="167.3742526726848" id="38" type="car"><route edges="west_in east_out" /></vehicle><vehicle color="1, 0, 0" depart="174.47762053902835" id="39" type="car"><route edges="south_in north_out" /></vehicle><vehicle color="1, 0, 0" depart="174.50144432894305" id="40" type="car"><route edges="east_in west_out" /></vehicle><vehicle color="1, 0, 0" depart="176.41727672182637" id="41" type="car"><route edges="east_in west_out" /></vehicle><vehicle color="1, 0, 0" depart="177.00506759789883" id="42" type="car"><route edges="east_in west_out" /></vehicle><vehicle color="1, 0, 0" depart="179.4754859636294" id="43" type="car"><route edges="east_in west_out" /></vehicle><vehicle color="1, 0, 0" depart="181.15380929684855" id="44" type="car"><route edges="north_in south_out" /></vehicle><vehicle color="1, 0, 0" depart="183.3502658523071" id="45" type="car"><route edges="south_in north_out" /></vehicle><vehicle color="1, 0, 0" depart="184.01552934809388" id="46" type="car"><route edges="north_in south_out" /></vehicle><vehicle color="1, 0, 0" depart="194.2688271827276" id="47" type="car"><route edges="west_in east_out" /></vehicle><vehicle color="1, 0, 0" depart="194.37937490655838" id="48" type="car"><route edges="west_in east_out" /></vehicle><vehicle color="1, 0, 0" depart="201.31757724053762" id="49" type="car"><route edges="west_in east_out" /></vehicle><vehicle color="1, 0, 0" depart="203.09659652662336" id="50" type="car"><route edges="west_in east_out" /></vehicle><vehicle color="1, 0, 0" depart="213.30421847738128" id="51" type="car"><route edges="north_in south_out" /></vehicle><vehicle color="1, 0, 0" depart="223.3866249386192" id="52" type="car"><route edges="west_in east_out" /></vehicle><vehicle color="1, 0, 0" depart="224.4881733161615" id="53" type="car"><route edges="west_in east_out" /></vehicle></routes>